Version 4.1
SHEET 1 880 680
WIRE 96 96 -96 96
WIRE 352 96 160 96
WIRE 96 208 -16 208
WIRE 352 208 352 96
WIRE 352 208 160 208
WIRE 352 224 352 208
WIRE -16 240 -16 208
WIRE 352 336 352 304
WIRE -96 400 -96 176
WIRE -16 400 -16 320
FLAG 352 336 0
FLAG -16 400 0
FLAG -96 400 0
SYMBOL diode 96 112 R270
WINDOW 0 32 32 VTop 2
WINDOW 3 0 32 VBottom 2
SYMATTR InstName D1
SYMATTR Value 1N4148
SYMBOL diode 96 224 R270
WINDOW 0 32 32 VTop 2
WINDOW 3 0 32 VBottom 2
SYMATTR InstName D2
SYMATTR Value 1N4148
SYMBOL res 336 208 R0
SYMATTR InstName R1
SYMATTR Value 1K
SYMBOL voltage -96 80 R0
WINDOW 0 60 33 Right 2
WINDOW 3 -459 51 Left 2
WINDOW 123 0 0 Left 0
WINDOW 39 0 0 Left 0
SYMATTR InstName V1
SYMATTR Value PULSE(0 5 0.5 0.001 0.001 0.5 1 10)
SYMBOL voltage -16 224 R0
WINDOW 3 -470 56 Left 2
WINDOW 123 0 0 Left 0
WINDOW 39 0 0 Left 0
SYMATTR Value PULSE(0 5 0.25 0.001 0.001 0.5 1 10)
SYMATTR InstName V2
TEXT -552 424 Left 2 !.tran 0 5 0 0.5
